%RWF=myrwf
%NoSave
%chk=esp.chk
%NprocShared=4
%Mem=16GB
#HF/6-31G* SCF=tight Test Pop=MK iop(6/33=2) iop(6/42=6) opt
# iop(6/50=1)

remark line goes here

0   1
    H    5.1234380000       -0.5543830000       -1.2872600000     
    C    4.1643120000       -1.0525050000       -1.2760910000     
    H    4.3396670000       -2.1213570000       -1.2031970000     
    H    3.6383970000       -0.8529120000       -2.2025390000     
    C    3.3934870000       -0.5986240000       -0.0544100000     
    O    3.9441220000       -0.2966880000        0.9685570000     
    H   -3.6646110000        1.3149450000       -0.8019020000     
    H   -1.7983040000        2.9037230000       -0.7455640000     
    C   -2.6982590000        1.0018940000       -0.4546990000     
    C   -1.6352880000        1.8918760000       -0.4196810000     
   Cl   -3.8102680000       -1.4366360000       -0.0608230000     
    H    0.4215990000        3.4730630000       -0.3592530000     
    C   -2.4936220000       -0.2924320000       -0.0319360000     
    C   -0.3767120000        1.5158330000        0.0248830000     
    H    1.0775250000        2.7149340000        1.0760740000     
    C    0.7459690000        2.5281200000        0.0591550000     
    C   -1.2491520000       -0.6970540000        0.4187380000     
    C   -0.1870670000        0.1935060000        0.4490870000     
    H   -1.1119330000       -1.7097580000        0.7504590000     
    H    1.6071620000        2.1881670000       -0.5038250000     
    H    1.6497400000        0.4262110000        1.5574680000     
    C    1.1618740000       -0.3017390000        0.9280140000     
    H    1.0288610000       -1.1972080000        1.5266660000     
    N    2.0452970000       -0.5680420000       -0.1942710000     
    H    1.6397140000       -0.9460630000       -1.0200560000     

final.esp

final.esp


