%RWF=myrwf
%NoSave
%chk=opt.chk
%NprocShared=4
%Mem=16GB
#HF/6-31G* SCF=tight Test Pop=MK iop(6/33=2) iop(6/42=6) opt

remark line goes here

0   1
    H   18.4820000000      -12.8590000000       20.7130000000     
    C   18.0300000000      -11.9150000000       21.0170000000     
    H   18.6630000000      -11.0880000000       20.6960000000     
    H   17.9270000000      -11.8940000000       22.1020000000     
    C   16.6270000000      -11.7390000000       20.3830000000     
    O   16.1740000000      -12.6140000000       19.6440000000     
    H   10.8150000000      -10.4350000000       24.1700000000     
    H   11.1760000000      -12.4290000000       22.7620000000     
    C   11.5700000000      -10.4150000000       23.3970000000     
    C   11.7790000000      -11.5480000000       22.5900000000     
   Cl   12.1870000000       -7.9180000000       24.2730000000     
    H   12.2300000000      -13.5620000000       21.0120000000     
    C   12.3690000000       -9.2730000000       23.2180000000     
    C   12.7720000000      -11.5440000000       21.5860000000     
    H   12.9420000000      -12.6180000000       19.7080000000     
    C   12.9870000000      -12.8110000000       20.7790000000     
    C   13.3450000000       -9.2540000000       22.2020000000     
    C   13.5530000000      -10.3780000000       21.3700000000     
    H   13.9540000000       -8.3730000000       22.0760000000     
    H   13.9600000000      -13.2420000000       21.0160000000     
    H   14.2980000000      -10.8460000000       19.3810000000     
    C   14.6010000000      -10.2790000000       20.2620000000     
    H   14.6230000000       -9.2400000000       19.9410000000     
    N   15.9570000000      -10.6180000000       20.6810000000     
    H   16.4530000000       -9.9180000000       21.2310000000     


