%RWF=myrwf
%NoSave
%chk=esp.chk
%NprocShared=4
%Mem=16GB
#HF/6-31G* SCF=tight Test Pop=MK iop(6/33=2) iop(6/42=6) opt
# iop(6/50=1)

remark line goes here

0   1
    H    5.0060010000       -1.6448480000       -1.0995920000     
    C    4.0832640000       -1.1357590000       -1.3385300000     
    H    3.5379630000       -1.7014910000       -2.0855020000     
    H    4.3269020000       -0.1642840000       -1.7565510000     
    C    3.2928430000       -0.9325370000       -0.0637690000     
    O    3.8251110000       -0.7975520000        1.0031430000     
    H   -3.6690120000        1.3388640000       -0.7569770000     
    H   -1.6911890000        2.8091270000       -0.6624430000     
    C   -2.7226990000        0.9554480000       -0.4269540000     
    C   -1.6116050000        1.7784770000       -0.3743600000     
   Cl   -3.9798560000       -1.4178270000       -0.1027320000     
    C   -2.5951730000       -0.3646390000       -0.0452370000     
    C   -0.3952230000        1.2788540000        0.0526860000     
   Cl    0.9624020000        2.3698630000        0.1044570000     
    C   -1.3793020000       -0.8630350000        0.3841250000     
    C   -0.2538230000       -0.0506010000        0.4415730000     
    H   -1.3051610000       -1.8923130000        0.6809080000     
    H    1.5633830000        0.0278250000        1.5904490000     
    C    1.0615200000       -0.6381100000        0.9058120000     
    H    0.8662590000       -1.5610870000        1.4408220000     
    N    1.9477290000       -0.8757550000       -0.2157310000     
    H    1.5477740000       -1.0542900000       -1.1075270000     

final.esp

final.esp


