%RWF=myrwf
%NoSave
%chk=esp.chk
%NprocShared=4
%Mem=16GB
#HF/6-31G* SCF=tight Test Pop=MK iop(6/33=2) iop(6/42=6) opt
# iop(6/50=1)

remark line goes here

0   1
    H   -4.3947140000        0.6793230000        0.8042800000     
    C   -3.4647160000        0.2683070000        1.1702390000     
    H   -3.6541690000       -0.6724530000        1.6740440000     
    H   -3.0448000000        0.9649050000        1.8894470000     
    C   -2.5036520000        0.1261510000        0.0087280000     
    O   -2.5479310000        0.8611120000       -0.9410760000     
    H    4.1281040000        1.1531850000        0.7529340000     
    H    3.8593160000       -1.2962000000        0.7861550000     
    C    3.2019350000        0.7062810000        0.4380780000     
    C    3.0509760000       -0.6678290000        0.4564690000     
    H    2.2667010000        2.5761170000       -0.0162710000     
    C    2.1526960000        1.5068180000        0.0060910000     
    C    1.8540000000       -1.2399570000        0.0466300000     
    H    1.7473700000       -2.3115030000        0.0599100000     
    C    0.9621030000        0.9348210000       -0.4023600000     
    C    0.7996410000       -0.4489010000       -0.3838450000     
    H    0.1522950000        1.5561030000       -0.7412550000     
    H   -0.8392830000       -0.6496610000       -1.7569290000     
    H   -0.3835240000       -2.1372960000       -0.9633390000     
    C   -0.5130210000       -1.0709790000       -0.8185580000     
    N   -1.5943420000       -0.8705180000        0.1299200000     
    H   -1.5332260000       -1.3460650000        1.0013630000     

final.esp

final.esp


