%RWF=myrwf
%NoSave
%chk=esp.chk
%NprocShared=4
%Mem=16GB
#HF/6-31G* SCF=tight Test Pop=MK iop(6/33=2) iop(6/42=6) opt
# iop(6/50=1)

remark line goes here

0   1
    H    5.1165850000       -0.1409990000       -1.1067640000     
    C    4.1123120000       -0.4845490000       -1.3094730000     
    H    4.1274410000       -1.5441130000       -1.5367490000     
    H    3.7397010000        0.0483720000       -2.1788830000     
    C    3.2353110000       -0.1544230000       -0.1207690000     
    O    3.4538840000        0.7941270000        0.5838830000     
    H   -3.1504230000        1.8586930000       -0.7310140000     
    H   -1.0225740000        3.0626220000       -0.3895680000     
    C   -2.2829730000        1.3429550000       -0.3653960000     
    C   -1.0821210000        2.0115650000       -0.1715720000     
   Cl   -3.8443260000       -0.8670010000       -0.3072230000     
    C   -2.3450590000       -0.0036170000       -0.0742740000     
    C    0.0299030000        1.3419000000        0.3022060000     
    H    0.9557530000        1.8664570000        0.4522860000     
    C   -1.2386810000       -0.6885260000        0.4015290000     
    C   -0.0401260000       -0.0187940000        0.5912050000     
    H   -1.3214860000       -1.7365340000        0.6242840000     
    H    1.6576820000       -0.2029530000        1.8889110000     
    C    1.1822460000       -0.7613480000        1.0973110000     
    H    0.8865320000       -1.7217400000        1.5023160000     
    N    2.1877740000       -0.9910750000        0.0769520000     
    H    1.9939740000       -1.6772580000       -0.6163620000     

final.esp

final.esp


