%RWF=myrwf
%NoSave
%chk=opt.chk
%NprocShared=4
%Mem=16GB
#HF/6-31G* SCF=tight Test Pop=MK iop(6/33=2) iop(6/42=6) opt

remark line goes here

0   1
    H   18.4930000000      -12.8670000000       20.7390000000     
    C   18.0490000000      -11.9130000000       21.0220000000     
    H   18.6890000000      -11.0990000000       20.6820000000     
    H   17.9470000000      -11.8660000000       22.1060000000     
    C   16.6480000000      -11.7400000000       20.3850000000     
    O   16.1900000000      -12.6290000000       19.6670000000     
    H   10.8010000000      -10.5310000000       24.0690000000     
    H   11.1480000000      -12.4640000000       22.5430000000     
    C   11.5680000000      -10.4860000000       23.3080000000     
    C   11.7650000000      -11.5820000000       22.4440000000     
   Cl   12.1700000000       -8.0090000000       24.2630000000     
    C   12.3750000000       -9.3400000000       23.1820000000     
    C   12.7540000000      -11.5270000000       21.4410000000     
    F   12.8930000000      -12.5680000000       20.5870000000     
    C   13.3730000000       -9.2910000000       22.1870000000     
    C   13.5700000000      -10.3800000000       21.3110000000     
    H   13.9930000000       -8.4120000000       22.1040000000     
    H   14.3280000000      -10.8830000000       19.3530000000     
    C   14.6260000000      -10.2860000000       20.2180000000     
    H   14.6350000000       -9.2510000000       19.8870000000     
    N   15.9840000000      -10.6080000000       20.6540000000     
    H   16.4830000000       -9.8960000000       21.1850000000     


