%RWF=myrwf
%NoSave
%chk=opt.chk
%NprocShared=4
%Mem=16GB
#HF/6-31G* SCF=tight Test Pop=MK iop(6/33=2) iop(6/42=6) opt

remark line goes here

0   1
    H   18.7820000000      -12.7570000000       20.5270000000     
    C   18.2380000000      -11.8960000000       20.9140000000     
    H   18.8300000000      -10.9930000000       20.7620000000     
    H   18.0510000000      -12.0320000000       21.9790000000     
    C   16.8820000000      -11.7250000000       20.1930000000     
    O   16.5600000000      -12.5200000000       19.3090000000     
    H   10.4480000000       -9.4990000000       23.9130000000     
    H   10.7770000000      -12.0110000000       23.4400000000     
    C   11.5360000000       -9.4380000000       23.8830000000     
    C   11.5690000000      -11.6940000000       22.7740000000     
    H   11.6930000000      -13.6070000000       21.8140000000     
    H   11.8360000000       -8.4090000000       23.6900000000     
    H   11.8980000000       -9.7210000000       24.8680000000     
    C   12.0840000000      -10.3890000000       22.8430000000     
    C   12.0910000000      -12.6030000000       21.8420000000     
    H   12.9010000000      -14.0600000000       19.8490000000     
    C   13.1190000000       -9.9960000000       21.9690000000     
    C   13.1230000000      -12.2220000000       20.9620000000     
    H   13.5200000000       -8.9950000000       22.0330000000     
    C   13.6360000000      -13.2670000000       19.9910000000     
    C   13.6480000000      -10.9030000000       21.0220000000     
    H   13.8510000000      -12.8510000000       19.0090000000     
    H   14.5410000000      -13.7250000000       20.3890000000     
    H   14.6110000000      -10.7990000000       19.0850000000     
    H   14.6770000000       -9.3350000000       20.0090000000     
    C   14.7610000000      -10.4180000000       20.0950000000     
    N   16.1070000000      -10.7040000000       20.5770000000     
    H   16.5080000000      -10.0400000000       21.2350000000     


