%RWF=myrwf
%NoSave
%chk=esp.chk
%NprocShared=4
%Mem=16GB
#HF/6-31G* SCF=tight Test Pop=MK iop(6/33=2) iop(6/42=6) opt
# iop(6/50=1)

remark line goes here

0   1
    H   -4.8114100000        0.1488950000        1.0223380000     
    C   -3.8189670000       -0.1860060000        1.2880610000     
    H   -3.8650980000       -1.1997690000        1.6687990000     
    H   -3.4413220000        0.4596600000        2.0750670000     
    C   -2.9197940000       -0.0574880000        0.0763570000     
    O   -3.1113050000        0.7775500000       -0.7663090000     
    H    4.7880130000       -0.4389990000        0.8017470000     
    H    3.5957550000        1.6272650000        0.6973560000     
    C    3.9850500000       -1.0627340000        0.4268160000     
    C    2.7101800000        1.1178830000        0.3591680000     
    H    4.3342530000       -1.5416380000       -0.4833090000     
    H    3.8039860000       -1.8458500000        1.1570880000     
    H    1.5518200000        2.9118210000        0.2553880000     
    C    2.7346810000       -0.2529580000        0.1711430000     
    C    1.5519770000        1.8459070000        0.1103190000     
    C    1.5688490000       -0.8804770000       -0.2692790000     
    C    0.4075450000        1.2120400000       -0.3263920000     
    H    1.5770420000       -1.9476760000       -0.4224430000     
    C    0.4086520000       -0.1693710000       -0.5186990000     
    H   -0.4867200000        1.7753590000       -0.5246190000     
    H   -1.2732790000       -0.3703470000       -1.8384320000     
    H   -0.6109740000       -1.8896660000       -1.2864930000     
    C   -0.8491850000       -0.8762620000       -0.9847600000     
    N   -1.8894430000       -0.9354930000        0.0266840000     
    H   -1.7194460000       -1.5042080000        0.8247930000     

final.esp

final.esp


