%RWF=myrwf
%NoSave
%chk=esp.chk
%NprocShared=4
%Mem=16GB
#HF/6-31G* SCF=tight Test Pop=MK iop(6/33=2) iop(6/42=6) opt
# iop(6/50=1)

remark line goes here

0   1
    H   -4.7606390000        0.2496870000        1.0119760000     
    C   -3.7905100000       -0.1482370000        1.2729550000     
    H   -3.8935240000       -1.1753000000        1.6033970000     
    H   -3.3916900000        0.4387400000        2.0946690000     
    C   -2.8692430000       -0.0085840000        0.0799250000     
    O   -3.0053450000        0.8721580000       -0.7259360000     
    H    3.6682000000        1.5077990000        0.7251380000     
    C    2.7606350000        1.0508210000        0.3781220000     
    F    3.7824250000       -1.0445500000        0.4650990000     
    H    1.6458710000        2.8618990000        0.2195300000     
    C    2.7038690000       -0.3108590000        0.1994090000     
    C    1.6236480000        1.7945150000        0.0929470000     
    C    1.5647160000       -0.9506200000       -0.2470280000     
    C    0.4691270000        1.1798960000       -0.3561220000     
    H    1.5817600000       -2.0181060000       -0.3729420000     
    H   -0.4052100000        1.7639000000       -0.5778440000     
    C    0.4318120000       -0.2023310000       -0.5277910000     
    H   -1.2448170000       -0.3582690000       -1.8564040000     
    H   -0.6159120000       -1.8962520000       -1.3162140000     
    C   -0.8373490000       -0.8821370000       -1.0056130000     
    N   -1.8815800000       -0.9332610000        0.0002380000     
    H   -1.7522800000       -1.5523530000        0.7678030000     

final.esp

final.esp


