%RWF=myrwf
%NoSave
%chk=opt.chk
%NprocShared=4
%Mem=16GB
#HF/CEP-31G SCF=tight Test Pop=MK iop(6/33=2) iop(6/42=6) opt
#Pop=ReadRadii

remark line goes here

0   1
    H   18.4930000000      -12.9210000000       20.7690000000     
    C   18.0750000000      -11.9480000000       21.0280000000     
    H   18.7310000000      -11.1600000000       20.6580000000     
    H   17.9860000000      -11.8660000000       22.1110000000     
    C   16.6730000000      -11.7590000000       20.4010000000     
    O   16.1780000000      -12.6530000000       19.7130000000     
    H   10.8490000000      -10.6820000000       23.9820000000     
    H   11.3350000000      -12.5940000000       22.4700000000     
    C   11.6220000000      -10.5920000000       23.2310000000     
    C   11.8980000000      -11.6760000000       22.3730000000     
    I   12.0630000000       -7.8310000000       24.4710000000     
    C   12.3740000000       -9.4060000000       23.1280000000     
    C   12.9110000000      -11.5670000000       21.3980000000     
    H   13.1240000000      -12.4030000000       20.7460000000     
    C   13.3770000000       -9.2950000000       22.1450000000     
    C   13.6470000000      -10.3700000000       21.2730000000     
    H   13.9550000000       -8.3870000000       22.0790000000     
    H   14.4210000000      -10.7710000000       19.3040000000     
    C   14.7150000000      -10.2250000000       20.2030000000     
    H   14.7520000000       -9.1720000000       19.9320000000     
    N   16.0510000000      -10.6000000000       20.6440000000     
    H   16.5670000000       -9.8980000000       21.1740000000     

I         1.99

I         1.99


