%RWF=myrwf
%NoSave
%chk=esp.chk
%NprocShared=4
%Mem=16GB
#HF/6-31G* SCF=tight Test Pop=MK iop(6/33=2) iop(6/42=6) opt
# iop(6/50=1)

remark line goes here

0   1
    H    5.0365180000       -0.6341250000       -1.2162330000     
    C    3.9982440000       -0.9282890000       -1.2727040000     
    H    3.9228710000       -2.0092650000       -1.2481290000     
    H    3.5961710000       -0.5772270000       -2.2182010000     
    C    3.2406410000       -0.2639430000       -0.1422590000     
    O    3.5832720000        0.7950640000        0.3107120000     
    H    1.7801760000        0.3319210000        1.8556640000     
    H    0.9391640000       -1.1960380000        1.9520660000     
    C    1.2304310000       -0.3968900000        1.2802700000     
    N    2.1542980000       -0.9410820000        0.3008330000     
    H    1.8580740000       -1.7393820000       -0.2132420000     
    H   -3.7805360000       -1.0714830000        1.2430740000     
    H   -3.1398250000        1.8273910000       -0.9141140000     
    C   -3.7178040000       -0.5475370000        0.2937900000     
    C   -2.2678460000        1.3734360000       -0.4751050000     
    H   -4.5204940000        0.1835880000        0.2921620000     
    H   -3.1722810000       -2.3105160000       -0.8547450000     
    H   -0.9638780000        2.9466910000       -1.0994280000     
    H   -4.9046630000       -2.0367780000       -0.7500570000     
    C   -2.3860590000        0.1672970000        0.1984060000     
    C   -3.9416820000       -1.5448470000       -0.8493810000     
    C   -1.0372800000        2.0069210000       -0.5810720000     
    C   -1.2393830000       -0.3869450000        0.7634980000     
    C    0.0906690000        1.4441570000       -0.0159430000     
    H   -3.9164990000       -1.0442650000       -1.8119360000     
    H   -1.3197120000       -1.3190190000        1.2992600000     
    H    1.0424400000        1.9390480000       -0.0905290000     
    C   -0.0038970000        0.2327270000        0.6643100000     

final.esp

final.esp


