%RWF=myrwf
%NoSave
%chk=opt.chk
%NprocShared=4
%Mem=16GB
#HF/6-31G* SCF=tight Test Pop=MK iop(6/33=2) iop(6/42=6) opt

remark line goes here

0   1
    H   18.5460000000      -12.8730000000       20.6990000000     
    C   18.1070000000      -11.9190000000       20.9900000000     
    H   18.7580000000      -11.1060000000       20.6690000000     
    H   17.9930000000      -11.8860000000       22.0740000000     
    C   16.7160000000      -11.7250000000       20.3400000000     
    O   16.2540000000      -12.5980000000       19.6030000000     
    H   14.5400000000      -10.6030000000       19.1740000000     
    H   14.6660000000       -9.1360000000       20.1190000000     
    C   14.7240000000      -10.2230000000       20.1810000000     
    N   16.0670000000      -10.5870000000       20.6170000000     
    H   16.5620000000       -9.8960000000       21.1790000000     
    H   10.4220000000       -9.5550000000       24.0590000000     
    H   10.8150000000      -12.0980000000       23.4280000000     
    C   11.5080000000       -9.6030000000       24.1480000000     
    C   11.5860000000      -11.7020000000       22.7810000000     
    H   11.6960000000      -10.2110000000       25.0300000000     
    H   11.7100000000       -7.4960000000       23.6680000000     
    H   11.7680000000      -13.5420000000       21.6720000000     
    H   11.7720000000       -7.8010000000       25.3540000000     
    C   12.0630000000      -10.3880000000       22.9640000000     
    C   12.0810000000       -8.1960000000       24.3900000000     
    C   12.1280000000      -12.5290000000       21.7810000000     
    C   13.0750000000       -9.8950000000       22.1040000000     
    C   13.1480000000      -12.0430000000       20.9460000000     
    H   13.1670000000       -8.1550000000       24.3560000000     
    H   13.4620000000       -8.8950000000       22.2260000000     
    H   13.5750000000      -12.6870000000       20.1890000000     
    C   13.6220000000      -10.7260000000       21.0990000000     


